opendss/123positivebus/Load.DSS
New "Load.s1a" bus1=1 model=1 phases=1 conn=wye kV=2.4 kW=13.333 kvar=6.6667
New "Load.s2b" bus1=2 model=1 phases=1 conn=wye kV=2.4 kW=6.6667 kvar=3.3333
New "Load.s4c" bus1=4 model=1 phases=1 conn=wye kV=2.4 kW=13.333 kvar=6.6667
New "Load.s5c" bus1=5 model=5 phases=1 conn=wye kV=2.4 kW=6.6667 kvar=3.3333
New "Load.s6c" bus1=6 model=2 phases=1 conn=wye kV=2.4 kW=13.333 kvar=6.6667
New "Load.s7a" bus1=7 model=1 phases=1 conn=wye kV=2.4 kW=6.6667 kvar=3.3333
New "Load.s9a" bus1=9 model=1 phases=1 conn=wye kV=2.4 kW=13.333 kvar=6.6667
New "Load.s10a" bus1=10 model=5 phases=1 conn=wye kV=2.4 kW=6.6667 kvar=3.3333
New "Load.s11a" bus1=11 model=2 phases=1 conn=wye kV=2.4 kW=13.333 kvar=6.6667
New "Load.s12b" bus1=12 model=1 phases=1 conn=wye kV=2.4 kW=6.6667 kvar=3.3333
New "Load.s16c" bus1=16 model=1 phases=1 conn=wye kV=2.4 kW=13.333 kvar=6.6667
New "Load.s17c" bus1=17 model=1 phases=1 conn=wye kV=2.4 kW=6.6667 kvar=3.3333
New "Load.s19a" bus1=19 model=1 phases=1 conn=wye kV=2.4 kW=13.333 kvar=6.6667
New "Load.s20a" bus1=20 model=5 phases=1 conn=wye kV=2.4 kW=13.333 kvar=6.6667
New "Load.s22b" bus1=22 model=2 phases=1 conn=wye kV=2.4 kW=13.333 kvar=6.6667
New "Load.s24c" bus1=24 model=1 phases=1 conn=wye kV=2.4 kW=13.333 kvar=6.6667
New "Load.s28a" bus1=28 model=5 phases=1 conn=wye kV=2.4 kW=13.333 kvar=6.6667
New "Load.s29a" bus1=29 model=2 phases=1 conn=wye kV=2.4 kW=13.333 kvar=6.6667
New "Load.s30c" bus1=30 model=1 phases=1 conn=wye kV=2.4 kW=13.333 kvar=6.6667
New "Load.s31c" bus1=31 model=1 phases=1 conn=wye kV=2.4 kW=6.6667 kvar=3.3333
New "Load.s32c" bus1=32 model=1 phases=1 conn=wye kV=2.4 kW=6.6667 kvar=3.3333
New "Load.s33a" bus1=33 model=5 phases=1 conn=wye kV=2.4 kW=13.333 kvar=6.6667
New "Load.s34c" bus1=34 model=2 phases=1 conn=wye kV=2.4 kW=13.333 kvar=6.6667
New "Load.s35a" bus1=35 model=1 phases=1 conn=wye kV=2.4018 kW=13.333 kvar=6.6667
New "Load.s37a" bus1=37 model=2 phases=1 conn=wye kV=2.4 kW=13.333 kvar=6.6667
New "Load.s38b" bus1=38 model=5 phases=1 conn=wye kV=2.4 kW=6.6667 kvar=3.3333
New "Load.s39b" bus1=39 model=1 phases=1 conn=wye kV=2.4 kW=6.6667 kvar=3.3333
New "Load.s41c" bus1=41 model=1 phases=1 conn=wye kV=2.4 kW=6.6667 kvar=3.3333
New "Load.s42a" bus1=42 model=1 phases=1 conn=wye kV=2.4 kW=6.6667 kvar=3.3333
New "Load.s43b" bus1=43 model=2 phases=1 conn=wye kV=2.4 kW=13.333 kvar=6.6667
New "Load.s45a" bus1=45 model=5 phases=1 conn=wye kV=2.4 kW=6.6667 kvar=3.3333
New "Load.s46a" bus1=46 model=1 phases=1 conn=wye kV=2.4 kW=6.6667 kvar=3.3333
New "Load.s47" bus1=47 model=5 phases=1 conn=wye kV=2.4018 kW=35 kvar=25
New "Load.s48" bus1=48 model=2 phases=1 conn=wye kV=2.4018 kW=70 kvar=50
New "Load.s49a" bus1=49 model=1 phases=1 conn=wye kV=2.4 kW=11.667 kvar=8.3333
New "Load.s49b" bus1=49 model=1 phases=1 conn=wye kV=2.4 kW=23.333 kvar=16.667
New "Load.s49c" bus1=49 model=1 phases=1 conn=wye kV=2.4 kW=11.667 kvar=6.6667
New "Load.s50c" bus1=50 model=1 phases=1 conn=wye kV=2.4 kW=13.333 kvar=6.6667
New "Load.s51a" bus1=51 model=1 phases=1 conn=wye kV=2.4 kW=6.6667 kvar=3.3333
New "Load.s52a" bus1=52 model=1 phases=1 conn=wye kV=2.4 kW=13.333 kvar=6.6667
New "Load.s53a" bus1=53 model=1 phases=1 conn=wye kV=2.4 kW=13.333 kvar=6.6667
New "Load.s55a" bus1=55 model=2 phases=1 conn=wye kV=2.4 kW=6.6667 kvar=3.3333
New "Load.s56b" bus1=56 model=1 phases=1 conn=wye kV=2.4 kW=6.6667 kvar=3.3333
New "Load.s58b" bus1=58 model=5 phases=1 conn=wye kV=2.4 kW=6.6667 kvar=3.3333
New "Load.s59b" bus1=59 model=1 phases=1 conn=wye kV=2.4 kW=6.6667 kvar=3.3333
New "Load.s60a" bus1=60 model=1 phases=1 conn=wye kV=2.4 kW=6.6667 kvar=3.3333
New "Load.s62c" bus1=62 model=2 phases=1 conn=wye kV=2.4 kW=13.333 kvar=6.6667
New "Load.s63a" bus1=63 model=1 phases=1 conn=wye kV=2.4 kW=13.333 kvar=6.6667
New "Load.s64b" bus1=64 model=5 phases=1 conn=wye kV=2.4 kW=25 kvar=11.667
New "Load.s65a" bus1=65 model=2 phases=1 conn=wye kV=2.4018 kW=11.667 kvar=8.3333
New "Load.s65b" bus1=65 model=2 phases=1 conn=wye kV=2.4018 kW=11.667 kvar=8.3333
New "Load.s65c" bus1=65 model=2 phases=1 conn=wye kV=2.4018 kW=23.333 kvar=16.667
New "Load.s66c" bus1=66 model=1 phases=1 conn=wye kV=2.4 kW=25 kvar=11.667
New "Load.s68a" bus1=68 model=1 phases=1 conn=wye kV=2.4 kW=6.6667 kvar=3.3333
New "Load.s69a" bus1=69 model=1 phases=1 conn=wye kV=2.4 kW=13.333 kvar=6.6667
New "Load.s70a" bus1=70 model=1 phases=1 conn=wye kV=2.4 kW=6.6667 kvar=3.3333
New "Load.s71a" bus1=71 model=1 phases=1 conn=wye kV=2.4 kW=13.333 kvar=6.6667
New "Load.s73c" bus1=73 model=1 phases=1 conn=wye kV=2.4 kW=13.333 kvar=6.6667
New "Load.s74c" bus1=74 model=2 phases=1 conn=wye kV=2.4 kW=13.333 kvar=6.6667
New "Load.s75c" bus1=75 model=1 phases=1 conn=wye kV=2.4 kW=13.333 kvar=6.6667
New "Load.s76a" bus1=76 model=5 phases=1 conn=wye kV=2.4018 kW=35 kvar=26.667
New "Load.s76b" bus1=76 model=5 phases=1 conn=wye kV=2.4018 kW=23.333 kvar=16.667
New "Load.s76c" bus1=76 model=5 phases=1 conn=wye kV=2.4018 kW=23.333 kvar=16.667
New "Load.s77b" bus1=77 model=1 phases=1 conn=wye kV=2.4 kW=13.333 kvar=6.6667
New "Load.s79a" bus1=79 model=2 phases=1 conn=wye kV=2.4 kW=13.333 kvar=6.6667
New "Load.s80b" bus1=80 model=1 phases=1 conn=wye kV=2.4 kW=13.333 kvar=6.6667
New "Load.s82a" bus1=82 model=1 phases=1 conn=wye kV=2.4 kW=13.333 kvar=6.6667
New "Load.s83c" bus1=83 model=1 phases=1 conn=wye kV=2.4 kW=6.6667 kvar=3.3333
New "Load.s84c" bus1=84 model=1 phases=1 conn=wye kV=2.4 kW=6.6667 kvar=3.3333
New "Load.s85c" bus1=85 model=1 phases=1 conn=wye kV=2.4 kW=13.333 kvar=6.6667
New "Load.s86b" bus1=86 model=1 phases=1 conn=wye kV=2.4 kW=6.6667 kvar=3.3333
New "Load.s87b" bus1=87 model=1 phases=1 conn=wye kV=2.4 kW=13.333 kvar=6.6667
New "Load.s88a" bus1=88 model=1 phases=1 conn=wye kV=2.4 kW=13.333 kvar=6.6667
New "Load.s90b" bus1=90 model=5 phases=1 conn=wye kV=2.4 kW=13.333 kvar=6.6667
New "Load.s92c" bus1=92 model=1 phases=1 conn=wye kV=2.4 kW=13.333 kvar=6.6667
New "Load.s94a" bus1=94 model=1 phases=1 conn=wye kV=2.4 kW=13.333 kvar=6.6667
New "Load.s95b" bus1=95 model=1 phases=1 conn=wye kV=2.4 kW=6.6667 kvar=3.3333
New "Load.s96b" bus1=96 model=1 phases=1 conn=wye kV=2.4 kW=6.6667 kvar=3.3333
New "Load.s98a" bus1=98 model=1 phases=1 conn=wye kV=2.4 kW=13.333 kvar=6.6667
New "Load.s99b" bus1=99 model=1 phases=1 conn=wye kV=2.4 kW=13.333 kvar=6.6667
New "Load.s100c" bus1=100 model=2 phases=1 conn=wye kV=2.4 kW=13.333 kvar=6.6667
New "Load.s102c" bus1=102 model=1 phases=1 conn=wye kV=2.4 kW=6.6667 kvar=3.3333
New "Load.s103c" bus1=103 model=1 phases=1 conn=wye kV=2.4 kW=13.333 kvar=6.6667
New "Load.s104c" bus1=104 model=1 phases=1 conn=wye kV=2.4 kW=13.333 kvar=6.6667
New "Load.s106b" bus1=106 model=1 phases=1 conn=wye kV=2.4 kW=13.333 kvar=6.6667
New "Load.s107b" bus1=107 model=1 phases=1 conn=wye kV=2.4 kW=13.333 kvar=6.6667
New "Load.s109a" bus1=109 model=1 phases=1 conn=wye kV=2.4 kW=13.333 kvar=6.6667
New "Load.s111a" bus1=111 model=1 phases=1 conn=wye kV=2.4 kW=6.6667 kvar=3.3333
New "Load.s112a" bus1=112 model=5 phases=1 conn=wye kV=2.4 kW=6.6667 kvar=3.3333
New "Load.s113a" bus1=113 model=2 phases=1 conn=wye kV=2.4 kW=13.333 kvar=6.6667
New "Load.s114a" bus1=114 model=1 phases=1 conn=wye kV=2.4 kW=6.6667 kvar=3.3333
