opendss/123positivebus/Transformer.DSS
New "Transformer.reg1a" windings=2 Xhl=0.001 %loadloss=1E-005 ppm_antifloat=0 buses=[150, 150r, ] conns=[wye, wye, ] kVs=[2.4018, 2.4018, ] kVAs=[1666.7, 1666.7, ] taps=[1, 1.04375, ] wdg=1 %R=5E-006 wdg=2 %R=5E-006 phases=1 conns=[wye, wye, ] buses=[150, 150r, ] kVs=[2.4018, 2.4018, ] kVAs=[1666.7, 1666.7, ] normhkVA=1833.3 emerghkVA=2500
New "Transformer.xfm1" windings=2 Xhl=2.72 buses=[61s, 610, ] conns=[wye, wye, ] kVs=[2.4018, 0.27713, ] kVAs=[50, 50, ] taps=[1, 1, ] wdg=1 %R=0.635 wdg=2 %R=0.635 phases=1 conns=[wye, wye, ] buses=[61s, 610, ] kVs=[2.4018, 0.27713, ] kVAs=[50, 50, ] normhkVA=55 emerghkVA=75
New "Transformer.reg2a" windings=2 bank=reg2 Xhl=0.01 %loadloss=1E-005 ppm_antifloat=0 buses=[9, 9r, ] conns=[wye, wye, ] kVs=[2.402, 2.402, ] kVAs=[2000, 2000, ] taps=[1, 0.99375, ] wdg=1 %R=5E-006 wdg=2 %R=5E-006 phases=1 conns=[wye, wye, ] buses=[9, 9r, ] kVs=[2.402, 2.402, ] kVAs=[2000, 2000, ] normhkVA=2200 emerghkVA=3000
New "Transformer.reg3a" windings=2 bank=reg3 Xhl=0.01 %loadloss=1E-005 ppm_antifloat=0 buses=[25, 25r, ] conns=[wye, wye, ] kVs=[2.402, 2.402, ] kVAs=[2000, 2000, ] taps=[1, 1, ] wdg=1 %R=5E-006 wdg=2 %R=5E-006 phases=1 conns=[wye, wye, ] buses=[25, 25r, ] kVs=[2.402, 2.402, ] kVAs=[2000, 2000, ] normhkVA=2200 emerghkVA=3000
New "Transformer.reg4a" windings=2 bank=reg4 Xhl=0.01 %loadloss=1E-005 ppm_antifloat=0 buses=[160, 160r, ] conns=[wye, wye, ] kVs=[2.402, 2.402, ] kVAs=[2000, 2000, ] taps=[1, 1.05, ] wdg=1 %R=5E-006 wdg=2 %R=5E-006 phases=1 conns=[wye, wye, ] buses=[160, 160r, ] kVs=[2.402, 2.402, ] kVAs=[2000, 2000, ] normhkVA=2200 emerghkVA=3000
