opendss/123positivebus/RegControl.DSS
New "RegControl.creg1a" transformer=reg1a winding=2 tapwinding=2 vreg=120 band=2 ptratio=20 CTprim=700 R=3 X=7.5 maxtapchange=0
New "RegControl.creg2a" transformer=reg2a winding=2 tapwinding=2 vreg=120 band=2 ptratio=20 CTprim=50 R=0.4 X=0.4 maxtapchange=0
New "RegControl.creg3a" transformer=reg3a winding=2 tapwinding=2 vreg=120 band=1 ptratio=20 CTprim=50 R=0.4 X=0.4 maxtapchange=0
New "RegControl.creg4a" transformer=reg4a winding=2 tapwinding=2 vreg=124 band=2 ptratio=20 CTprim=300 R=0.6 X=1.3 maxtapchange=0
